test/data/xiidm/dc.xiidm
<?xml version="1.0" encoding="UTF-8"?>
<iidm:network xmlns:iidm="http://www.powsybl.org/schema/iidm/1_17" id="dc" caseDate="2026-01-01T00:00:00Z" forecastDistance="0" sourceFormat="test" minimumValidationLevel="STEADY_STATE_HYPOTHESIS">
  <iidm:dcNode id="N1" nominalV="500" v="498"/><iidm:dcNode id="N2" nominalV="500"/>
  <iidm:dcSwitch id="S" dcNode1="N1" dcNode2="N2" kind="DISCONNECTOR" open="true" r="0.9"/>
  <iidm:dcGround id="G" dcNode="N1" r="0.1" connected="false"/>
  <iidm:dcLine id="L" dcNode1="N1" dcNode2="N2" r="4" connected1="true" connected2="true" dcP1="100" dcI1="200" dcP2="-98" dcI2="-195"/>
  <iidm:substation id="SUB"><iidm:voltageLevel id="VL" nominalV="400" topologyKind="BUS_BREAKER">
    <iidm:busBreakerTopology><iidm:bus id="B1"/><iidm:bus id="B2"/></iidm:busBreakerTopology>
    <iidm:voltageSourceConverter id="VSC" dcNode1="N1" dcConnected1="true" dcNode2="N2" dcConnected2="false" idleLoss="2" switchingLoss="0.2" resistiveLoss="0.000002" controlMode="P_PCC_DROOP" targetP="301" targetVdc="502" bus1="B1" connectableBus1="B1" bus2="B2" connectableBus2="B2" voltageRegulatorOn="true" voltageSetpoint="397"><iidm:pccTerminal id="VSC" number="ONE"/><iidm:droopCurve><iidm:segment minV="-100" maxV="100" k="-5"/></iidm:droopCurve><iidm:reactiveCapabilityCurve><iidm:property name="curve" value="retained"/><iidm:point p="-200" minQ="-190" maxQ="192"><iidm:property name="point" value="one"/></iidm:point><iidm:point p="200" minQ="-189" maxQ="191"/></iidm:reactiveCapabilityCurve></iidm:voltageSourceConverter>
  </iidm:voltageLevel></iidm:substation>
</iidm:network>
